<?xml version="1.0" encoding="UTF-8"?>

<!-- generated on 2022-02-17 18:46:03 by Eclipse SUMO netedit Version 1.10.0
<configuration xmlns:xsi="http://www.w3.org/2001/XMLSchema-instance" xsi:noNamespaceSchemaLocation="http://sumo.dlr.de/xsd/netconvertConfiguration.xsd">

    <input>
        <sumo-net-file value="/mnt/d/Research/ITSC%202022/SimCal/dataset/Corridor/testbed.net.xml"/>
    </input>

    <output>
        <output-file value="/mnt/d/Research/ITSC%202022/SimCal/dataset/Corridor/testbed.net.xml"/>
    </output>

    <processing>
        <geometry.min-radius.fix.railways value="false"/>
        <geometry.max-grade.fix value="false"/>
        <offset.disable-normalization value="true"/>
        <lefthand value="false"/>
    </processing>

    <junctions>
        <no-turnarounds value="true"/>
        <junctions.corner-detail value="5"/>
        <junctions.limit-turn-speed value="5.5"/>
        <rectangular-lane-cut value="false"/>
    </junctions>

    <pedestrian>
        <walkingareas value="false"/>
    </pedestrian>

    <report>
        <aggregate-warnings value="5"/>
    </report>

</configuration>
-->

<net version="1.9" junctionCornerDetail="5" limitTurnSpeed="5.50" xmlns:xsi="http://www.w3.org/2001/XMLSchema-instance" xsi:noNamespaceSchemaLocation="http://sumo.dlr.de/xsd/net_file.xsd">

    <location netOffset="-653632.97,-3877917.21" convBoundary="228.98,743.92,2352.37,1622.47" origBoundary="-85.315766,35.032223,-85.287591,35.055724" projParameter="+proj=utm +zone=16 +ellps=WGS84 +datum=WGS84 +units=m +no_defs"/>

    <type id="highway.bridleway" priority="1" numLanes="1" speed="2.78" allow="pedestrian" oneway="1" width="2.00"/>
    <type id="highway.bus_guideway" priority="1" numLanes="1" speed="27.78" allow="bus" oneway="1"/>
    <type id="highway.cycleway" priority="1" numLanes="1" speed="8.33" allow="bicycle" oneway="1" width="1.00"/>
    <type id="highway.footway" priority="1" numLanes="1" speed="2.78" allow="pedestrian" oneway="1" width="2.00"/>
    <type id="highway.ford" priority="1" numLanes="1" speed="2.78" allow="army" oneway="1"/>
    <type id="highway.living_street" priority="2" numLanes="1" speed="2.78" disallow="tram rail_urban rail rail_electric rail_fast ship" oneway="1"/>
    <type id="highway.motorway" priority="14" numLanes="2" speed="39.44" allow="private emergency authority army vip passenger hov taxi bus coach delivery truck trailer motorcycle evehicle custom1 custom2" oneway="1"/>
    <type id="highway.motorway_link" priority="9" numLanes="1" speed="22.22" allow="private emergency authority army vip passenger hov taxi bus coach delivery truck trailer motorcycle evehicle custom1 custom2" oneway="1"/>
    <type id="highway.path" priority="1" numLanes="1" speed="2.78" allow="pedestrian bicycle" oneway="1" width="2.00"/>
    <type id="highway.pedestrian" priority="1" numLanes="1" speed="2.78" allow="pedestrian" oneway="1" width="2.00"/>
    <type id="highway.primary" priority="12" numLanes="2" speed="27.78" disallow="tram rail_urban rail rail_electric rail_fast ship" oneway="1"/>
    <type id="highway.primary_link" priority="7" numLanes="1" speed="22.22" disallow="tram rail_urban rail rail_electric rail_fast ship" oneway="1"/>
    <type id="highway.raceway" priority="15" numLanes="2" speed="83.33" allow="vip" oneway="1"/>
    <type id="highway.residential" priority="3" numLanes="1" speed="13.89" disallow="tram rail_urban rail rail_electric rail_fast ship" oneway="1"/>
    <type id="highway.secondary" priority="11" numLanes="1" speed="27.78" disallow="tram rail_urban rail rail_electric rail_fast ship" oneway="1"/>
    <type id="highway.secondary_link" priority="6" numLanes="1" speed="22.22" disallow="tram rail_urban rail rail_electric rail_fast ship" oneway="1"/>
    <type id="highway.service" priority="1" numLanes="1" speed="5.56" allow="pedestrian delivery bicycle" oneway="1"/>
    <type id="highway.stairs" priority="1" numLanes="1" speed="1.39" allow="pedestrian" oneway="1" width="2.00"/>
    <type id="highway.step" priority="1" numLanes="1" speed="1.39" allow="pedestrian" oneway="1" width="2.00"/>
    <type id="highway.steps" priority="1" numLanes="1" speed="1.39" allow="pedestrian" oneway="1" width="2.00"/>
    <type id="highway.tertiary" priority="10" numLanes="1" speed="22.22" disallow="tram rail_urban rail rail_electric rail_fast ship" oneway="1"/>
    <type id="highway.tertiary_link" priority="5" numLanes="1" speed="22.22" disallow="tram rail_urban rail rail_electric rail_fast ship" oneway="1"/>
    <type id="highway.track" priority="1" numLanes="1" speed="5.56" allow="pedestrian motorcycle moped bicycle" oneway="1"/>
    <type id="highway.trunk" priority="13" numLanes="2" speed="27.78" disallow="pedestrian bicycle tram rail_urban rail rail_electric rail_fast ship" oneway="1"/>
    <type id="highway.trunk_link" priority="8" numLanes="1" speed="22.22" disallow="pedestrian bicycle tram rail_urban rail rail_electric rail_fast ship" oneway="1"/>
    <type id="highway.unclassified" priority="4" numLanes="1" speed="13.89" disallow="tram rail_urban rail rail_electric rail_fast ship" oneway="1"/>
    <type id="highway.unsurfaced" priority="1" numLanes="1" speed="8.33" disallow="tram rail_urban rail rail_electric rail_fast ship" oneway="1"/>
    <type id="railway.highspeed" priority="21" numLanes="1" speed="69.44" allow="rail_fast" oneway="1"/>
    <type id="railway.light_rail" priority="19" numLanes="1" speed="27.78" allow="rail_urban" oneway="1"/>
    <type id="railway.preserved" priority="16" numLanes="1" speed="27.78" allow="rail" oneway="1"/>
    <type id="railway.rail" priority="20" numLanes="1" speed="44.44" allow="rail" oneway="1"/>
    <type id="railway.subway" priority="18" numLanes="1" speed="27.78" allow="rail_urban" oneway="1"/>
    <type id="railway.tram" priority="17" numLanes="1" speed="13.89" allow="tram" oneway="1"/>

    <edge id=":202596787_0" function="internal">
        <lane id=":202596787_0_0" index="0" disallow="tram rail_urban rail rail_electric rail_fast ship" speed="3.65" length="4.67" shape="559.80,1405.62 560.65,1404.45 561.46,1404.08 562.24,1404.51 563.00,1405.74"/>
    </edge>
    <edge id=":202608342_0" function="internal">
        <lane id=":202608342_0_0" index="0" disallow="tram rail_urban rail rail_electric rail_fast ship" speed="3.65" length="4.67" shape="1226.18,1446.88 1225.94,1448.30 1225.38,1449.00 1224.48,1448.96 1223.26,1448.20"/>
    </edge>
    <edge id=":202608350_0" function="internal">
        <lane id=":202608350_0_0" index="0" disallow="tram rail_urban rail rail_electric rail_fast ship" speed="3.65" length="4.67" shape="1101.88,1174.49 1102.14,1173.07 1102.71,1172.38 1103.61,1172.43 1104.82,1173.21"/>
    </edge>
    <edge id=":202612555_0" function="internal">
        <lane id=":202612555_0_0" index="0" disallow="tram rail_urban rail rail_electric rail_fast ship" speed="3.65" length="4.67" shape="717.20,1621.79 716.99,1623.21 716.43,1623.92 715.54,1623.90 714.30,1623.15"/>
    </edge>
    <edge id=":202612558_0" function="internal">
        <lane id=":202612558_0_0" index="0" disallow="tram rail_urban rail rail_electric rail_fast ship" speed="3.65" length="4.67" shape="608.55,1391.21 608.81,1389.79 609.38,1389.10 610.27,1389.15 611.49,1389.93"/>
    </edge>
    <edge id=":202628918_0" function="internal">
        <lane id=":202628918_0_0" index="0" disallow="tram rail_urban rail rail_electric rail_fast ship" speed="3.65" length="4.67" shape="317.70,1404.97 317.98,1403.55 318.56,1402.87 319.45,1402.93 320.66,1403.73"/>
    </edge>
    <edge id=":202633696_0" function="internal">
        <lane id=":202633696_0_0" index="0" disallow="tram rail_urban rail rail_electric rail_fast ship" speed="3.65" length="4.67" shape="856.31,1282.84 856.55,1281.42 857.12,1280.73 858.02,1280.77 859.23,1281.54"/>
    </edge>
    <edge id=":202638663_0" function="internal">
        <lane id=":202638663_0_0" index="0" disallow="tram rail_urban rail rail_electric rail_fast ship" speed="3.65" length="4.67" shape="734.01,1336.67 734.25,1335.25 734.83,1334.57 735.72,1334.61 736.93,1335.39"/>
    </edge>
    <edge id=":202638691_0" function="internal">
        <lane id=":202638691_0_0" index="0" disallow="tram rail_urban rail rail_electric rail_fast ship" speed="3.65" length="4.67" shape="1716.47,910.95 1716.75,909.54 1717.34,908.86 1718.23,908.93 1719.43,909.73"/>
    </edge>
    <edge id=":202638706_0" function="internal">
        <lane id=":202638706_0_0" index="0" disallow="tram rail_urban rail rail_electric rail_fast ship" speed="3.65" length="4.67" shape="2091.83,744.55 2092.09,743.14 2092.67,742.45 2093.56,742.50 2094.77,743.29"/>
    </edge>
    <edge id=":202639118_0" function="internal">
        <lane id=":202639118_0_0" index="0" disallow="tram rail_urban rail rail_electric rail_fast ship" speed="3.65" length="4.67" shape="1831.73,1178.39 1831.46,1179.80 1830.88,1180.48 1829.99,1180.43 1828.79,1179.63"/>
    </edge>
    <edge id=":202729389_0" function="internal">
        <lane id=":202729389_0_0" index="0" disallow="tram rail_urban rail rail_electric rail_fast ship" speed="3.65" length="4.67" shape="2210.12,1013.46 2209.85,1014.87 2209.27,1015.55 2208.38,1015.50 2207.18,1014.70"/>
    </edge>
    <edge id=":5573625537_0" function="internal">
        <lane id=":5573625537_0_0" index="0" disallow="tram rail_urban rail rail_electric rail_fast ship" speed="3.65" length="4.67" shape="1473.99,1013.40 1474.26,1011.98 1474.84,1011.31 1475.73,1011.36 1476.93,1012.16"/>
    </edge>
    <edge id=":5797124804_0" function="internal">
        <lane id=":5797124804_0_0" index="0" disallow="tram rail_urban rail rail_electric rail_fast ship" speed="3.65" length="4.67" shape="845.36,1577.31 845.13,1578.73 844.56,1579.43 843.67,1579.39 842.44,1578.63"/>
    </edge>
    <edge id=":Broad_0" function="internal">
        <lane id=":Broad_0_0" index="0" speed="8.08" length="14.71" shape="475.86,1510.71 471.75,1511.04 468.76,1512.55 466.90,1515.26 466.17,1519.15"/>
    </edge>
    <edge id=":Broad_1" function="internal">
        <lane id=":Broad_1_0" index="0" disallow="tram rail_urban rail rail_electric rail_fast ship" speed="20.84" length="28.15" shape="475.86,1510.71 467.57,1510.75 461.91,1511.59 456.25,1512.57 447.95,1512.97"/>
        <lane id=":Broad_1_1" index="1" disallow="tram rail_urban rail rail_electric rail_fast ship" speed="20.84" length="28.15" shape="476.04,1507.51 467.71,1507.55 462.02,1508.40 456.33,1509.37 447.98,1509.77"/>
    </edge>
    <edge id=":Broad_3" function="internal">
        <lane id=":Broad_3_0" index="0" speed="10.26" length="13.26" shape="476.22,1504.32 469.34,1502.93 464.73,1499.66 464.48,1499.12"/>
    </edge>
    <edge id=":Broad_16" function="internal">
        <lane id=":Broad_16_0" index="0" speed="10.26" length="12.09" shape="464.48,1499.12 462.37,1494.51 462.28,1487.50"/>
    </edge>
    <edge id=":Broad_4" function="internal">
        <lane id=":Broad_4_0" index="0" speed="6.35" length="9.04" shape="471.80,1488.74 471.83,1491.24 472.67,1493.07 474.32,1494.24 476.77,1494.73"/>
    </edge>
    <edge id=":Broad_5" function="internal">
        <lane id=":Broad_5_0" index="0" speed="13.89" length="31.10" shape="471.80,1488.74 470.15,1498.36 468.40,1505.77 466.94,1512.27 466.17,1519.15"/>
        <lane id=":Broad_5_1" index="1" speed="13.89" length="31.10" shape="468.62,1488.32 466.97,1497.99 465.21,1505.51 463.74,1512.10 462.97,1519.03"/>
    </edge>
    <edge id=":Broad_7" function="internal">
        <lane id=":Broad_7_0" index="0" disallow="tram rail_urban rail rail_electric rail_fast ship" speed="11.64" length="16.28" shape="465.45,1487.91 463.44,1496.13 459.86,1501.98 459.07,1502.52"/>
    </edge>
    <edge id=":Broad_17" function="internal">
        <lane id=":Broad_17_0" index="0" disallow="tram rail_urban rail rail_electric rail_fast ship" speed="11.64" length="12.05" shape="459.07,1502.52 454.72,1505.46 448.01,1506.57"/>
    </edge>
    <edge id=":Broad_8" function="internal">
        <lane id=":Broad_8_0" index="0" disallow="tram rail_urban rail rail_electric rail_fast ship" speed="8.37" length="14.18" shape="448.13,1493.78 452.60,1493.39 455.92,1492.15 458.09,1490.05 459.10,1487.08"/>
    </edge>
    <edge id=":Broad_9" function="internal">
        <lane id=":Broad_9_0" index="0" disallow="tram rail_urban rail rail_electric rail_fast ship" speed="20.84" length="28.58" shape="448.13,1493.78 476.77,1494.73"/>
        <lane id=":Broad_9_1" index="1" disallow="tram rail_urban rail rail_electric rail_fast ship" speed="20.84" length="28.58" shape="448.10,1496.98 476.59,1497.93"/>
    </edge>
    <edge id=":Broad_11" function="internal">
        <lane id=":Broad_11_0" index="0" disallow="tram rail_urban rail rail_electric rail_fast ship" speed="10.84" length="15.09" shape="448.07,1500.18 454.85,1501.41 459.60,1504.96 460.55,1507.02"/>
    </edge>
    <edge id=":Broad_18" function="internal">
        <lane id=":Broad_18_0" index="0" disallow="tram rail_urban rail rail_electric rail_fast ship" speed="10.84" length="12.42" shape="460.55,1507.02 462.30,1510.84 462.97,1519.03"/>
    </edge>
    <edge id=":Broad_12" function="internal">
        <lane id=":Broad_12_0" index="0" disallow="tram rail_urban rail rail_electric rail_fast ship" speed="6.45" length="9.03" shape="453.38,1518.67 453.12,1516.20 452.13,1514.43 450.40,1513.35 447.95,1512.97"/>
    </edge>
    <edge id=":Broad_13" function="internal">
        <lane id=":Broad_13_0" index="0" speed="13.89" length="32.20" shape="453.38,1518.67 454.82,1508.87 457.55,1501.18 460.42,1494.44 462.28,1487.50"/>
        <lane id=":Broad_13_1" index="1" speed="13.89" length="32.20" shape="456.58,1518.79 457.03,1508.91 457.57,1501.03 458.24,1494.11 459.10,1487.08"/>
    </edge>
    <edge id=":Broad_15" function="internal">
        <lane id=":Broad_15_0" index="0" speed="11.44" length="16.31" shape="459.78,1518.91 461.13,1509.39 464.07,1503.37"/>
    </edge>
    <edge id=":Broad_19" function="internal">
        <lane id=":Broad_19_0" index="0" speed="11.44" length="14.26" shape="464.07,1503.37 464.39,1502.72 469.54,1498.90 476.59,1497.93"/>
    </edge>
    <edge id=":Central_0" function="internal">
        <lane id=":Central_0_0" index="0" disallow="tram rail_urban rail rail_electric rail_fast ship" speed="6.48" length="9.03" shape="2147.45,881.73 2146.17,879.61 2144.52,878.41 2142.50,878.14 2140.11,878.81"/>
    </edge>
    <edge id=":Central_1" function="internal">
        <lane id=":Central_1_0" index="0" disallow="tram rail_urban rail rail_electric rail_fast ship" speed="13.41" length="20.82" shape="2147.45,881.73 2139.28,862.59"/>
        <lane id=":Central_1_1" index="1" disallow="tram rail_urban rail rail_electric rail_fast ship" speed="13.41" length="20.82" shape="2150.40,880.48 2142.21,861.32"/>
    </edge>
    <edge id=":Central_3" function="internal">
        <lane id=":Central_3_0" index="0" disallow="tram rail_urban rail rail_electric rail_fast ship" speed="9.24" length="6.93" shape="2150.40,880.48 2149.04,875.32 2149.26,873.75"/>
    </edge>
    <edge id=":Central_14" function="internal">
        <lane id=":Central_14_0" index="0" disallow="tram rail_urban rail rail_electric rail_fast ship" speed="9.24" length="12.51" shape="2149.26,873.75 2149.66,870.98 2152.27,867.46 2156.86,864.75"/>
    </edge>
    <edge id=":Central_4" function="internal">
        <lane id=":Central_4_0" index="0" disallow="tram rail_urban rail rail_electric rail_fast ship" speed="6.49" length="9.04" shape="2159.30,870.67 2157.16,871.93 2155.95,873.57 2155.66,875.59 2156.29,877.99"/>
    </edge>
    <edge id=":Central_5" function="internal">
        <lane id=":Central_5_0" index="0" disallow="tram rail_urban rail rail_electric rail_fast ship" speed="11.18" length="20.84" shape="2159.30,870.67 2140.11,878.81"/>
    </edge>
    <edge id=":Central_6" function="internal">
        <lane id=":Central_6_0" index="0" disallow="tram rail_urban rail rail_electric rail_fast ship" speed="9.33" length="10.05" shape="2158.08,867.71 2152.91,869.03 2148.55,868.40 2148.29,868.22"/>
    </edge>
    <edge id=":Central_15" function="internal">
        <lane id=":Central_15_0" index="0" disallow="tram rail_urban rail rail_electric rail_fast ship" speed="9.33" length="9.37" shape="2148.29,868.22 2144.98,865.83 2142.21,861.32"/>
    </edge>
    <edge id=":Central_7" function="internal">
        <lane id=":Central_7_0" index="0" disallow="tram rail_urban rail rail_electric rail_fast ship" speed="7.42" length="11.89" shape="2148.09,858.79 2149.95,862.21 2152.04,864.34 2154.34,865.19 2156.86,864.75"/>
    </edge>
    <edge id=":Central_8" function="internal">
        <lane id=":Central_8_0" index="0" disallow="tram rail_urban rail rail_electric rail_fast ship" speed="13.41" length="20.87" shape="2148.09,858.79 2156.29,877.99"/>
        <lane id=":Central_8_1" index="1" disallow="tram rail_urban rail rail_electric rail_fast ship" speed="13.41" length="20.87" shape="2145.15,860.06 2153.35,879.24"/>
    </edge>
    <edge id=":Central_10" function="internal">
        <lane id=":Central_10_0" index="0" disallow="tram rail_urban rail rail_electric rail_fast ship" speed="9.87" length="8.72" shape="2145.15,860.06 2147.09,866.45 2147.01,868.49"/>
    </edge>
    <edge id=":Central_16" function="internal">
        <lane id=":Central_16_0" index="0" disallow="tram rail_urban rail rail_electric rail_fast ship" speed="9.87" length="13.31" shape="2147.01,868.49 2146.90,871.70 2144.57,875.82 2140.11,878.81"/>
    </edge>
    <edge id=":Central_11" function="internal">
        <lane id=":Central_11_0" index="0" disallow="tram rail_urban rail rail_electric rail_fast ship" speed="6.55" length="9.12" shape="2136.27,870.01 2138.41,868.69 2139.63,867.01 2139.92,864.98 2139.28,862.59"/>
    </edge>
    <edge id=":Central_12" function="internal">
        <lane id=":Central_12_0" index="0" disallow="tram rail_urban rail rail_electric rail_fast ship" speed="11.18" length="21.31" shape="2136.27,870.01 2142.70,867.77 2148.27,866.59 2152.98,865.81 2156.86,864.75"/>
    </edge>
    <edge id=":Central_13" function="internal">
        <lane id=":Central_13_0" index="0" disallow="tram rail_urban rail rail_electric rail_fast ship" speed="9.24" length="11.91" shape="2137.55,872.94 2142.69,871.52 2147.04,872.09 2148.82,873.38"/>
    </edge>
    <edge id=":Central_17" function="internal">
        <lane id=":Central_17_0" index="0" disallow="tram rail_urban rail rail_electric rail_fast ship" speed="9.24" length="7.53" shape="2148.82,873.38 2150.59,874.67 2153.35,879.24"/>
    </edge>
    <edge id=":Chestnut_0" function="internal">
        <lane id=":Chestnut_0_0" index="0" disallow="tram rail_urban rail rail_electric rail_fast ship" speed="7.48" length="12.00" shape="369.83,1512.22 365.86,1512.53 362.99,1513.54 361.22,1515.26 360.56,1517.68"/>
    </edge>
    <edge id=":Chestnut_1" function="internal">
        <lane id=":Chestnut_1_0" index="0" disallow="tram rail_urban rail rail_electric rail_fast ship" speed="20.84" length="22.65" shape="369.83,1512.22 363.40,1511.83 358.94,1511.31 354.57,1511.42 348.43,1512.94"/>
        <lane id=":Chestnut_1_1" index="1" disallow="tram rail_urban rail rail_electric rail_fast ship" speed="20.84" length="22.65" shape="369.86,1509.02 363.13,1508.63 358.45,1508.12 353.88,1508.29 347.45,1509.89"/>
        <lane id=":Chestnut_1_2" index="2" disallow="tram rail_urban rail rail_electric rail_fast ship" speed="20.84" length="22.65" shape="369.89,1505.82 362.86,1505.43 357.97,1504.94 353.18,1505.15 346.47,1506.85"/>
    </edge>
    <edge id=":Chestnut_4" function="internal">
        <lane id=":Chestnut_4_0" index="0" disallow="tram rail_urban rail rail_electric rail_fast ship" speed="12.86" length="7.08" shape="369.92,1502.62 364.51,1501.52 363.21,1500.67"/>
    </edge>
    <edge id=":Chestnut_16" function="internal">
        <lane id=":Chestnut_16_0" index="0" disallow="tram rail_urban rail rail_electric rail_fast ship" speed="12.86" length="19.32" shape="363.21,1500.67 359.64,1498.35 355.31,1493.09 351.53,1485.75"/>
    </edge>
    <edge id=":Chestnut_5" function="internal">
        <lane id=":Chestnut_5_0" index="0" disallow="tram rail_urban rail rail_electric rail_fast ship" speed="9.87" length="15.27" shape="360.39,1482.04 362.71,1486.83 365.08,1490.25 367.52,1492.32 370.02,1493.02"/>
    </edge>
    <edge id=":Chestnut_6" function="internal">
        <lane id=":Chestnut_6_0" index="0" disallow="tram rail_urban rail rail_electric rail_fast ship" speed="25.00" length="34.87" shape="357.44,1483.28 360.40,1493.79 361.24,1503.79 360.97,1512.14 360.56,1517.68"/>
    </edge>
    <edge id=":Chestnut_7" function="internal">
        <lane id=":Chestnut_7_0" index="0" disallow="tram rail_urban rail rail_electric rail_fast ship" speed="11.15" length="19.76" shape="354.48,1484.51 357.24,1493.73 356.99,1501.04 355.52,1503.46"/>
    </edge>
    <edge id=":Chestnut_17" function="internal">
        <lane id=":Chestnut_17_0" index="0" disallow="tram rail_urban rail rail_electric rail_fast ship" speed="11.15" length="10.64" shape="355.52,1503.46 353.72,1506.42 347.45,1509.89"/>
    </edge>
    <edge id=":Chestnut_8" function="internal">
        <lane id=":Chestnut_8_0" index="0" disallow="tram rail_urban rail rail_electric rail_fast ship" speed="7.77" length="14.17" shape="342.53,1494.67 347.30,1492.75 350.39,1490.63 351.80,1488.29 351.53,1485.75"/>
    </edge>
    <edge id=":Chestnut_9" function="internal">
        <lane id=":Chestnut_9_0" index="0" disallow="tram rail_urban rail rail_electric rail_fast ship" speed="20.84" length="26.76" shape="342.53,1494.67 350.42,1492.61 356.03,1492.21 361.76,1492.63 370.02,1493.02"/>
        <lane id=":Chestnut_9_1" index="1" disallow="tram rail_urban rail rail_electric rail_fast ship" speed="20.84" length="26.76" shape="343.52,1497.71 351.11,1495.74 356.51,1495.39 362.03,1495.83 369.99,1496.22"/>
        <lane id=":Chestnut_9_2" index="2" disallow="tram rail_urban rail rail_electric rail_fast ship" speed="20.84" length="26.76" shape="344.50,1500.76 351.80,1498.88 357.00,1498.57 362.31,1499.03 369.96,1499.42"/>
    </edge>
    <edge id=":Chestnut_12" function="internal">
        <lane id=":Chestnut_12_0" index="0" disallow="tram rail_urban rail rail_electric rail_fast ship" speed="9.49" length="8.94" shape="345.48,1503.80 352.36,1502.75 354.20,1503.51"/>
    </edge>
    <edge id=":Chestnut_18" function="internal">
        <lane id=":Chestnut_18_0" index="0" disallow="tram rail_urban rail rail_electric rail_fast ship" speed="9.49" length="16.90" shape="354.20,1503.51 357.17,1504.72 359.90,1509.69 360.56,1517.68"/>
    </edge>
    <edge id=":Chestnut_13" function="internal">
        <lane id=":Chestnut_13_0" index="0" disallow="tram rail_urban rail rail_electric rail_fast ship" speed="5.91" length="9.21" shape="354.17,1517.43 353.90,1514.74 352.86,1513.09 351.03,1512.49 348.43,1512.94"/>
    </edge>
    <edge id=":Chestnut_14" function="internal">
        <lane id=":Chestnut_14_0" index="0" disallow="tram rail_urban rail rail_electric rail_fast ship" speed="25.00" length="31.89" shape="354.17,1517.43 354.19,1508.91 353.72,1499.57 352.81,1491.24 351.53,1485.75"/>
    </edge>
    <edge id=":Chestnut_15" function="internal">
        <lane id=":Chestnut_15_0" index="0" disallow="tram rail_urban rail rail_electric rail_fast ship" speed="11.07" length="12.70" shape="357.36,1517.55 358.47,1508.18 359.60,1505.12"/>
    </edge>
    <edge id=":Chestnut_19" function="internal">
        <lane id=":Chestnut_19_0" index="0" disallow="tram rail_urban rail rail_electric rail_fast ship" speed="11.07" length="14.76" shape="359.60,1505.12 360.94,1501.50 364.78,1497.51 369.99,1496.22"/>
    </edge>
    <edge id=":Douglas_0" function="internal">
        <lane id=":Douglas_0_0" index="0" disallow="tram rail_urban rail rail_electric rail_fast ship" speed="6.54" length="9.09" shape="1158.08,1303.68 1156.75,1301.57 1155.06,1300.38 1153.02,1300.13 1150.64,1300.79"/>
    </edge>
    <edge id=":Douglas_1" function="internal">
        <lane id=":Douglas_1_0" index="0" disallow="tram rail_urban rail rail_electric rail_fast ship" speed="13.89" length="20.84" shape="1158.08,1303.68 1149.65,1284.62"/>
    </edge>
    <edge id=":Douglas_2" function="internal">
        <lane id=":Douglas_2_0" index="0" disallow="tram rail_urban rail rail_electric rail_fast ship" speed="8.42" length="5.95" shape="1158.08,1303.68 1157.15,1299.75 1157.25,1297.85"/>
    </edge>
    <edge id=":Douglas_12" function="internal">
        <lane id=":Douglas_12_0" index="0" disallow="tram rail_urban rail rail_electric rail_fast ship" speed="8.42" length="10.03" shape="1157.25,1297.85 1157.39,1295.38 1158.77,1291.52 1161.28,1289.13"/>
    </edge>
    <edge id=":Douglas_3" function="internal">
        <lane id=":Douglas_3_0" index="0" disallow="tram rail_urban rail rail_electric rail_fast ship" speed="6.48" length="9.03" shape="1163.84,1294.99 1161.73,1296.30 1160.55,1297.96 1160.31,1299.99 1161.00,1302.37"/>
    </edge>
    <edge id=":Douglas_4" function="internal">
        <lane id=":Douglas_4_0" index="0" disallow="tram rail_urban rail rail_electric rail_fast ship" speed="12.54" length="14.42" shape="1163.84,1294.99 1150.64,1300.79"/>
    </edge>
    <edge id=":Douglas_5" function="internal">
        <lane id=":Douglas_5_0" index="0" disallow="tram rail_urban rail rail_electric rail_fast ship" speed="8.67" length="7.80" shape="1162.56,1292.06 1158.70,1292.93 1155.26,1291.98 1155.05,1291.79"/>
    </edge>
    <edge id=":Douglas_13" function="internal">
        <lane id=":Douglas_13_0" index="0" disallow="tram rail_urban rail rail_electric rail_fast ship" speed="8.67" length="9.08" shape="1155.05,1291.79 1152.25,1289.21 1149.65,1284.62"/>
    </edge>
    <edge id=":Douglas_6" function="internal">
        <lane id=":Douglas_6_0" index="0" disallow="tram rail_urban rail rail_electric rail_fast ship" speed="7.32" length="11.75" shape="1152.59,1283.35 1154.44,1286.73 1156.51,1288.82 1158.78,1289.62 1161.28,1289.13"/>
    </edge>
    <edge id=":Douglas_7" function="internal">
        <lane id=":Douglas_7_0" index="0" disallow="tram rail_urban rail rail_electric rail_fast ship" speed="13.89" length="20.79" shape="1152.59,1283.35 1161.00,1302.37"/>
    </edge>
    <edge id=":Douglas_8" function="internal">
        <lane id=":Douglas_8_0" index="0" disallow="tram rail_urban rail rail_electric rail_fast ship" speed="9.10" length="7.06" shape="1152.59,1283.35 1153.83,1288.09 1153.89,1290.25"/>
    </edge>
    <edge id=":Douglas_14" function="internal">
        <lane id=":Douglas_14_0" index="0" disallow="tram rail_urban rail rail_electric rail_fast ship" speed="9.10" length="11.51" shape="1153.89,1290.25 1153.98,1293.42 1152.96,1298.08 1150.64,1300.79"/>
    </edge>
    <edge id=":Douglas_9" function="internal">
        <lane id=":Douglas_9_0" index="0" disallow="tram rail_urban rail rail_electric rail_fast ship" speed="6.52" length="9.03" shape="1146.76,1292.01 1148.86,1290.70 1150.04,1289.03 1150.31,1287.01 1149.65,1284.62"/>
    </edge>
    <edge id=":Douglas_10" function="internal">
        <lane id=":Douglas_10_0" index="0" disallow="tram rail_urban rail rail_electric rail_fast ship" speed="12.54" length="14.88" shape="1146.76,1292.01 1151.24,1290.58 1154.84,1290.20 1158.03,1290.01 1161.28,1289.13"/>
    </edge>
    <edge id=":Douglas_11" function="internal">
        <lane id=":Douglas_11_0" index="0" disallow="tram rail_urban rail rail_electric rail_fast ship" speed="8.70" length="9.44" shape="1148.05,1294.94 1151.86,1294.08 1155.29,1295.03 1156.76,1296.36"/>
    </edge>
    <edge id=":Douglas_15" function="internal">
        <lane id=":Douglas_15_0" index="0" disallow="tram rail_urban rail rail_electric rail_fast ship" speed="8.70" length="7.43" shape="1156.76,1296.36 1158.34,1297.79 1161.00,1302.37"/>
    </edge>
    <edge id=":Georgia_0" function="internal">
        <lane id=":Georgia_0_0" index="0" disallow="tram rail_urban rail rail_electric rail_fast ship" speed="9.75" length="14.06" shape="662.55,1521.33 660.96,1519.35 658.32,1517.91 654.65,1517.02 649.93,1516.67"/>
    </edge>
    <edge id=":Georgia_1" function="internal">
        <lane id=":Georgia_1_0" index="0" disallow="tram rail_urban rail rail_electric rail_fast ship" speed="27.78" length="27.61" shape="665.44,1519.96 654.04,1494.82"/>
    </edge>
    <edge id=":Georgia_2" function="internal">
        <lane id=":Georgia_2_0" index="0" disallow="tram rail_urban rail rail_electric rail_fast ship" speed="9.47" length="10.96" shape="665.44,1519.96 662.89,1513.25 662.45,1509.50"/>
    </edge>
    <edge id=":Georgia_14" function="internal">
        <lane id=":Georgia_14_0" index="0" disallow="tram rail_urban rail rail_electric rail_fast ship" speed="9.47" length="9.81" shape="662.45,1509.50 662.27,1507.93 663.56,1504.01 666.79,1501.48"/>
    </edge>
    <edge id=":Georgia_3" function="internal">
        <lane id=":Georgia_3_0" index="0" disallow="tram rail_urban rail rail_electric rail_fast ship" speed="6.71" length="9.89" shape="670.64,1510.27 668.55,1511.64 667.47,1513.49 667.40,1515.80 668.33,1518.60"/>
    </edge>
    <edge id=":Georgia_4" function="internal">
        <lane id=":Georgia_4_0" index="0" disallow="tram rail_urban rail rail_electric rail_fast ship" speed="12.54" length="20.51" shape="670.64,1510.27 665.01,1512.49 660.79,1513.43 656.32,1513.60 649.97,1513.47"/>
        <lane id=":Georgia_4_1" index="1" disallow="tram rail_urban rail rail_electric rail_fast ship" speed="12.54" length="20.51" shape="669.35,1507.34 663.93,1509.47 659.99,1510.33 655.90,1510.42 650.02,1510.27"/>
    </edge>
    <edge id=":Georgia_6" function="internal">
        <lane id=":Georgia_6_0" index="0" disallow="tram rail_urban rail rail_electric rail_fast ship" speed="9.82" length="5.57" shape="669.35,1507.34 665.31,1507.91 663.97,1507.26"/>
    </edge>
    <edge id=":Georgia_15" function="internal">