<additional>
    <tlLogic id="Broad" type="actuated" programID="0" offset="0">
        <phase duration="6"  state="rrrGrrrrrrrGrrrr"/>
        <phase duration="6"  state="rrryrrrrrrryrrrr"/>
        <phase duration="6"  state="rrrrgGGgrrrrgGGg"/>
        <phase duration="6"  state="rrrryyygrrrryyyg"/>
        <phase duration="6"  state="rrrrrrrGrrrrrrrG"/>
        <phase duration="6"  state="rrrrrrryrrrrrrry"/>
        <phase duration="6"  state="gGGgrrrrgGGgrrrr"/>
        <phase duration="6"  state="yyygrrrryyygrrrr"/>
    </tlLogic>
</additional>